@<TRIPOS>MOLECULE
2EP.pdb
 20 20 0 0 0
SMALL
GASTEIGER

@<TRIPOS>ATOM
      1  CAA       23.8480  -23.9920   -0.3080 C.3   1  2EP     -0.0307
      2  CAG       23.5360  -23.9730   -1.8010 C.3   1  2EP      0.0870
      3  OAH       22.2750  -24.6570   -2.0140 O.3   1  2EP     -0.4886
      4  CAJ       22.2570  -25.4490   -3.1170 C.ar  1  2EP      0.1617
      5  CAF       22.9410  -25.0860   -4.2780 C.ar  1  2EP     -0.0163
      6  CAD       22.9060  -25.9320   -5.3910 C.ar  1  2EP     -0.0581
      7  CAC       22.1770  -27.1190   -5.3480 C.ar  1  2EP     -0.0581
      8  CAE       21.4800  -27.4770   -4.1900 C.ar  1  2EP     -0.0165
      9  CAI       21.5210  -26.6380   -3.0740 C.ar  1  2EP      0.1584
     10  OAB       20.8420  -26.9820   -1.9410 O.3   1  2EP     -0.5033
     11 H          24.7767  -23.4908   -0.1313 H     1  2EP      0.0262
     12 H          23.9198  -25.0052    0.0285 H     1  2EP      0.0262
     13 H          23.0664  -23.4933    0.2261 H     1  2EP      0.0262
     14 H          23.4604  -22.9614   -2.1415 H     1  2EP      0.0694
     15 H          24.3162  -24.4623   -2.3458 H     1  2EP      0.0694
     16 H          23.4687  -24.1999   -4.3149 H     1  2EP      0.0655
     17 H          23.4220  -25.6764   -6.2474 H     1  2EP      0.0619
     18 H          22.1515  -27.7365   -6.1745 H     1  2EP      0.0619
     19 H          20.9389  -28.3552   -4.1600 H     1  2EP      0.0655
     20 H          20.3495  -27.7786   -1.9136 H     1  2EP      0.2923
@<TRIPOS>BOND
     1     6     7   ar
     2     6     5   ar
     3     7     8   ar
     4     5     4   ar
     5     8     9   ar
     6     4     9   ar
     7     4     3    1
     8     9    10    1
     9     3     2    1
    10     2     1    1
    11     1    11    1
    12     1    12    1
    13     1    13    1
    14     2    14    1
    15     2    15    1
    16     5    16    1
    17     6    17    1
    18     7    18    1
    19     8    19    1
    20    10    20    1
